Version 4
SHEET 1 880 680
WIRE 256 80 192 80
WIRE 256 96 256 80
WIRE 192 176 192 160
WIRE 192 176 160 176
WIRE 96 256 96 176
WIRE 96 256 16 256
WIRE 16 272 16 256
WIRE 192 272 192 256
WIRE 96 352 96 256
WIRE 192 352 176 352
WIRE 192 368 192 352
FLAG 256 96 0
FLAG 192 432 0
FLAG 16 352 0
SYMBOL cap 160 160 R90
WINDOW 0 0 32 VBottom 2
WINDOW 3 32 32 VTop 2
SYMATTR InstName C1
SYMATTR Value 10n
SYMBOL res 192 336 R90
WINDOW 0 0 56 VBottom 2
WINDOW 3 32 56 VTop 2
SYMATTR InstName R1
SYMATTR Value 22k
SYMBOL res 208 272 R180
WINDOW 0 36 76 Left 2
WINDOW 3 36 40 Left 2
SYMATTR InstName R2
SYMATTR Value 30k
SYMBOL res 176 256 R0
SYMATTR InstName R3
SYMATTR Value 70k
SYMBOL res 176 64 R0
SYMATTR InstName R4
SYMATTR Value 22k
SYMBOL cap 176 368 R0
SYMATTR InstName C2
SYMATTR Value 10n
SYMBOL Misc\\signal 16 256 R0
WINDOW 123 24 124 Left 2
WINDOW 39 0 0 Left 0
SYMATTR InstName V1
SYMATTR Value SINE(0 1.5 200)
SYMATTR Value2 AC 1
TEXT -16 456 Left 2 ;.tran 10m
TEXT -16 480 Left 2 !.ac dec 100 20 20k
